
#======================================================================
# CRYSTAL DATA
#----------------------------------------------------------------------
data_VESTA_phase_1

_chemical_name_common                  '468_OP                                '
_cell_length_a                         13.072854
_cell_length_b                         13.089233
_cell_length_c                         14.125309
_cell_angle_alpha                      65.052269
_cell_angle_beta                       55.017784
_cell_angle_gamma                      85.567116
_cell_volume                           1750.975479
_space_group_name_H-M_alt              'P 1'
_space_group_IT_number                 1

loop_
_space_group_symop_operation_xyz
   'x, y, z'

loop_
   _atom_site_label
   _atom_site_occupancy
   _atom_site_fract_x
   _atom_site_fract_y
   _atom_site_fract_z
   _atom_site_adp_type
   _atom_site_U_iso_or_equiv
   _atom_site_type_symbol
   Cu1        1.0     0.960190     0.954441     0.099942    Uiso  ? Cu
   Cu2        1.0     0.098367     0.047167     0.840174    Uiso  ? Cu
   H1         1.0     0.776312     0.969498     0.852013    Uiso  ? H
   H2         1.0     0.659497     0.944945     0.769479    Uiso  ? H
   H3         1.0     0.012803     0.729081     0.843215    Uiso  ? H
   H4         1.0     0.994256     0.591792     0.769927    Uiso  ? H
   H5         1.0     0.378902     0.197311     0.580264    Uiso  ? H
   H6         1.0     0.277196     0.295141     0.603189    Uiso  ? H
   H7         1.0     0.410657     0.324557     0.441588    Uiso  ? H
   H8         1.0     0.333328     0.301905     0.331606    Uiso  ? H
   H9         1.0     0.114990     0.154313     0.220140    Uiso  ? H
   H10        1.0     0.023037     0.956892     0.733939    Uiso  ? H
   H11        1.0     0.910850     0.859633     0.738058    Uiso  ? H
   H12        1.0     0.750486     0.699372     0.855686    Uiso  ? H
   H13        1.0     0.766086     0.632195     0.763022    Uiso  ? H
   H14        1.0     0.648121     0.714005     0.808239    Uiso  ? H
   H15        1.0     0.020898     0.049807     0.215954    Uiso  ? H
   H16        1.0     0.785186     0.707313     0.336508    Uiso  ? H
   H17        1.0     0.647728     0.671738     0.498556    Uiso  ? H
   H18        1.0     0.675714     0.798314     0.361378    Uiso  ? H
   H19        1.0     0.277905     0.312280     0.100197    Uiso  ? H
   H20        1.0     0.382716     0.292636     0.145578    Uiso  ? H
   H21        1.0     0.269451     0.379231     0.190177    Uiso  ? H
   H22        1.0     0.708054     0.704162     0.616307    Uiso  ? H
   C1         1.0     0.284592     0.300531     0.177868    Uiso  ? C
   C2         1.0     0.025294     0.798343     0.991459    Uiso  ? C
   C3         1.0     0.813388     0.996818     0.007939    Uiso  ? C
   C4         1.0     0.239113     0.999344     0.943306    Uiso  ? C
   C5         1.0     0.034603     0.207693     0.938248    Uiso  ? C
   C6         1.0     0.693797     0.000371     0.016046    Uiso  ? C
   C7         1.0     0.690628     0.983612     0.927148    Uiso  ? C
   C8         1.0     0.580406     0.985476     0.930553    Uiso  ? C
   C9         1.0     0.576693     0.964391     0.841771    Uiso  ? C
   C10        1.0     0.468119     0.967929     0.847723    Uiso  ? C
   C11        1.0     0.357381     0.994147     0.938207    Uiso  ? C
   C12        1.0     0.362511     0.014960     0.023970    Uiso  ? C
   C13        1.0     0.469751     0.009749     0.026154    Uiso  ? C
   C14        1.0     0.475552     0.026951     0.115655    Uiso  ? C
   C15        1.0     0.583742     0.021546     0.111637    Uiso  ? C
   C16        1.0     0.028367     0.680840     0.998269    Uiso  ? C
   C17        1.0     0.019843     0.659020     0.915001    Uiso  ? C
   C18        1.0     0.021070     0.548696     0.920236    Uiso  ? C
   C19        1.0     0.007956     0.524935     0.838094    Uiso  ? C
   C20        1.0     0.011594     0.417079     0.845098    Uiso  ? C
   C21        1.0     0.030382     0.325909     0.930453    Uiso  ? C
   C22        1.0     0.043924     0.350703     0.009321    Uiso  ? C
   C23        1.0     0.037077     0.458430     0.010796    Uiso  ? C
   C24        1.0     0.045118     0.482967     0.095189    Uiso  ? C
   C25        1.0     0.040026     0.590778     0.089713    Uiso  ? C
   C26        1.0     0.335111     0.256250     0.538403    Uiso  ? C
   C27        1.0     0.252104     0.191058     0.531782    Uiso  ? C
   C28        1.0     0.262266     0.224759     0.419169    Uiso  ? C
   C29        1.0     0.182280     0.161352     0.416348    Uiso  ? C
   C30        1.0     0.188874     0.195242     0.301956    Uiso  ? C
   C31        1.0     0.108548     0.127502     0.307595    Uiso  ? C
   C32        1.0     0.020121     0.023627     0.420530    Uiso  ? C
   C33        1.0     0.010045     0.988960     0.535380    Uiso  ? C
   C34        1.0     0.092639     0.059470     0.532483    Uiso  ? C
   C35        1.0     0.089793     0.032670     0.641570    Uiso  ? C
   C36        1.0     0.919429     0.886071     0.649027    Uiso  ? C
   C37        1.0     0.841089     0.817232     0.653127    Uiso  ? C
   C38        1.0     0.746849     0.710331     0.776307    Uiso  ? C
   C39        1.0     0.852314     0.848882     0.536368    Uiso  ? C
   C40        1.0     0.941880     0.951044     0.420847    Uiso  ? C
   C41        1.0     0.952754     0.974457     0.307920    Uiso  ? C
   C42        1.0     0.796598     0.812342     0.413926    Uiso  ? C
   C43        1.0     0.779049     0.781891     0.529737    Uiso  ? C
   C44        1.0     0.721376     0.742880     0.403219    Uiso  ? C
   N1         1.0     0.163658     0.095142     0.643275    Uiso  ? N
   N2         1.0     0.885596     0.908387     0.302773    Uiso  ? N
   O1         1.0     0.958219     0.801851     0.099153    Uiso  ? O
   O2         1.0     0.133973     0.951904     0.057306    Uiso  ? O
   O3         1.0     0.800230     0.958484     0.114213    Uiso  ? O
   O4         1.0     0.978035     0.123925     0.052101    Uiso  ? O
   O5         1.0     0.090363     0.882468     0.876884    Uiso  ? O
   O6         1.0     0.254957     0.050071     0.835520    Uiso  ? O
   O7         1.0     0.094003     0.203140     0.831206    Uiso  ? O
   O8         1.0     0.917019     0.031953     0.893747    Uiso  ? O
   F1         1.0     0.464764     0.942997     0.765453    Uiso  ? F
   F2         1.0     0.582258     0.041028     0.198922    Uiso  ? F
   F3         1.0     0.374491     0.048797     0.208927    Uiso  ? F
   F4         1.0     0.261434     0.044953     0.108226    Uiso  ? F
   F5         1.0     0.994471     0.395673     0.768633    Uiso  ? F
   F6         1.0     0.050843     0.609032     0.171165    Uiso  ? F
   F7         1.0     0.057199     0.401073     0.184501    Uiso  ? F
   F8         1.0     0.069029     0.268835     0.087170    Uiso  ? F
