
#======================================================================
# CRYSTAL DATA
#----------------------------------------------------------------------
data_VESTA_phase_1

_chemical_name_common                  '468-O_edge_200-N_edge_102_333         '
_cell_length_a                         13.070001
_cell_length_b                         13.083194
_cell_length_c                         14.204475
_cell_angle_alpha                      64.182541
_cell_angle_beta                       56.602417
_cell_angle_gamma                      82.286407
_cell_volume                           1807.358845
_space_group_name_H-M_alt              'P 1'
_space_group_IT_number                 1

loop_
_space_group_symop_operation_xyz
   'x, y, z'

loop_
   _atom_site_label
   _atom_site_occupancy
   _atom_site_fract_x
   _atom_site_fract_y
   _atom_site_fract_z
   _atom_site_adp_type
   _atom_site_U_iso_or_equiv
   _atom_site_type_symbol
   Cu1        1.0     0.971176     0.958051     0.093291    Uiso  ? Cu
   Cu2        1.0     0.093517     0.044886     0.843238    Uiso  ? Cu
   H1         1.0     0.776853     0.967710     0.853484    Uiso  ? H
   H2         1.0     0.657612     0.938713     0.776070    Uiso  ? H
   H3         1.0     0.010642     0.731271     0.848524    Uiso  ? H
   H4         1.0     0.984099     0.596966     0.778955    Uiso  ? H
   H5         1.0     0.355749     0.188309     0.598752    Uiso  ? H
   H6         1.0     0.250847     0.289114     0.616127    Uiso  ? H
   H7         1.0     0.380106     0.312678     0.462708    Uiso  ? H
   H8         1.0     0.308142     0.287677     0.348963    Uiso  ? H
   H9         1.0     0.234628     0.257874     0.232250    Uiso  ? H
   H10        1.0     0.105889     0.144676     0.227586    Uiso  ? H
   H11        1.0     0.019225     0.957112     0.735614    Uiso  ? H
   H12        1.0     0.916803     0.860088     0.729996    Uiso  ? H
   H13        1.0     0.792864     0.702747     0.829458    Uiso  ? H
   H14        1.0     0.771338     0.644454     0.748745    Uiso  ? H
   H15        1.0     0.664336     0.728768     0.816045    Uiso  ? H
   H16        1.0     0.033620     0.035392     0.216921    Uiso  ? H
   H17        1.0     0.585006     0.731377     0.602710    Uiso  ? H
   H18        1.0     0.602244     0.758408     0.704370    Uiso  ? H
   H19        1.0     0.659384     0.638196     0.673195    Uiso  ? H
   H20        1.0     0.792028     0.765086     0.288568    Uiso  ? H
   H21        1.0     0.693836     0.677809     0.452645    Uiso  ? H
   H22        1.0     0.653076     0.810682     0.379803    Uiso  ? H
   C1         1.0     0.036719     0.798387     0.988320    Uiso  ? C
   C2         1.0     0.820241     0.004401     0.000057    Uiso  ? C
   C3         1.0     0.240662     0.996745     0.943785    Uiso  ? C
   C4         1.0     0.031920     0.207683     0.940324    Uiso  ? C
   C5         1.0     0.700993     0.009405     0.007165    Uiso  ? C
   C6         1.0     0.694227     0.986734     0.923997    Uiso  ? C
   C7         1.0     0.583768     0.988289     0.927793    Uiso  ? C
   C8         1.0     0.576758     0.961136     0.844891    Uiso  ? C
   C9         1.0     0.467748     0.963125     0.851826    Uiso  ? C
   C10        1.0     0.359487     0.993311     0.937723    Uiso  ? C
   C11        1.0     0.368109     0.021165     0.016955    Uiso  ? C
   C12        1.0     0.476448     0.018382     0.017511    Uiso  ? C
   C13        1.0     0.486361     0.043008     0.100166    Uiso  ? C
   C14        1.0     0.594769     0.037349     0.096267    Uiso  ? C
   C15        1.0     0.042392     0.680775     0.993925    Uiso  ? C
   C16        1.0     0.025449     0.660319     0.915373    Uiso  ? C
   C17        1.0     0.026977     0.550208     0.919670    Uiso  ? C
   C18        1.0     0.003946     0.528406     0.843054    Uiso  ? C
   C19        1.0     0.004930     0.420152     0.850756    Uiso  ? C
   C20        1.0     0.030735     0.326622     0.931430    Uiso  ? C
   C21        1.0     0.055837     0.349890     0.003583    Uiso  ? C
   C22        1.0     0.052576     0.458295     0.003891    Uiso  ? C
   C23        1.0     0.071786     0.482126     0.081753    Uiso  ? C
   C24        1.0     0.064786     0.589697     0.078443    Uiso  ? C
   C25        1.0     0.309933     0.247373     0.555065    Uiso  ? C
   C26        1.0     0.233081     0.182935     0.544661    Uiso  ? C
   C27        1.0     0.242481     0.213806     0.433531    Uiso  ? C
   C28        1.0     0.167661     0.151233     0.427951    Uiso  ? C
   C29        1.0     0.172347     0.182081     0.316430    Uiso  ? C
   C30        1.0     0.100104     0.117841     0.314232    Uiso  ? C
   C31        1.0     0.016826     0.018491     0.422486    Uiso  ? C
   C32        1.0     0.006387     0.987117     0.536248    Uiso  ? C
   C33        1.0     0.083756     0.053868     0.538867    Uiso  ? C
   C34        1.0     0.081420     0.029504     0.646869    Uiso  ? C
   C35        1.0     0.920619     0.889096     0.643381    Uiso  ? C
   C36        1.0     0.842111     0.826074     0.645555    Uiso  ? C
   C37        1.0     0.763195     0.720293     0.765686    Uiso  ? C
   C38        1.0     0.847338     0.858698     0.531279    Uiso  ? C
   C39        1.0     0.941439     0.949926     0.419530    Uiso  ? C
   C40        1.0     0.960876     0.969524     0.304771    Uiso  ? C
   C41        1.0     0.801061     0.828203     0.399903    Uiso  ? C
   C42        1.0     0.769022     0.804708     0.519792    Uiso  ? C
   C43        1.0     0.648497     0.728689     0.631071    Uiso  ? C
   C44        1.0     0.730915     0.766389     0.379974    Uiso  ? C
   N1         1.0     0.150920     0.090665     0.651216    Uiso  ? N
   N2         1.0     0.897823     0.908811     0.293810    Uiso  ? N
   O1         1.0     0.975422     0.804615     0.092091    Uiso  ? O
   O2         1.0     0.143163     0.952049     0.053636    Uiso  ? O
   O3         1.0     0.813190     0.968952     0.102419    Uiso  ? O
   O4         1.0     0.982384     0.126399     0.050110    Uiso  ? O
   O5         1.0     0.093563     0.880046     0.878219    Uiso  ? O
   O6         1.0     0.249142     0.044016     0.840070    Uiso  ? O
   O7         1.0     0.082936     0.200554     0.837560    Uiso  ? O
   O8         1.0     0.917390     0.035146     0.890387    Uiso  ? O
   F1         1.0     0.461787     0.932618     0.774807    Uiso  ? F
   F2         1.0     0.597264     0.063202     0.177274    Uiso  ? F
   F3         1.0     0.389291     0.072549     0.186237    Uiso  ? F
   F4         1.0     0.269138     0.055652     0.096205    Uiso  ? F
   F5         1.0     0.978023     0.401020     0.779731    Uiso  ? F
   F6         1.0     0.084443     0.606949     0.154647    Uiso  ? F
   F7         1.0     0.096519     0.399549     0.162815    Uiso  ? F
   F8         1.0     0.088180     0.265122     0.076135    Uiso  ? F
